test/data/enwl/networks/network_20/Feeder_5/Loads.dss
New Load.LOAD1 Phases=1 Bus1=42.1 kV=0.23 kW=1 PF=0.95
New Load.LOAD2 Phases=1 Bus1=43.2 kV=0.23 kW=1 PF=0.95
New Load.LOAD3 Phases=1 Bus1=44.3 kV=0.23 kW=1 PF=0.95
New Load.LOAD4 Phases=1 Bus1=45.1 kV=0.23 kW=1 PF=0.95
New Load.LOAD5 Phases=1 Bus1=46.2 kV=0.23 kW=1 PF=0.95
New Load.LOAD6 Phases=1 Bus1=47.3 kV=0.23 kW=1 PF=0.95
New Load.LOAD7 Phases=1 Bus1=48.1 kV=0.23 kW=1 PF=0.95
New Load.LOAD8 Phases=1 Bus1=49.2 kV=0.23 kW=1 PF=0.95
New Load.LOAD9 Phases=1 Bus1=50.3 kV=0.23 kW=1 PF=0.95
New Load.LOAD10 Phases=1 Bus1=51.1 kV=0.23 kW=1 PF=0.95
New Load.LOAD11 Phases=1 Bus1=52.2 kV=0.23 kW=1 PF=0.95
New Load.LOAD12 Phases=1 Bus1=53.3 kV=0.23 kW=1 PF=0.95
New Load.LOAD13 Phases=1 Bus1=54.1 kV=0.23 kW=1 PF=0.95
New Load.LOAD14 Phases=1 Bus1=55.2 kV=0.23 kW=1 PF=0.95
New Load.LOAD15 Phases=1 Bus1=56.3 kV=0.23 kW=1 PF=0.95
New Load.LOAD16 Phases=1 Bus1=57.1 kV=0.23 kW=1 PF=0.95
New Load.LOAD17 Phases=1 Bus1=58.2 kV=0.23 kW=1 PF=0.95
New Load.LOAD18 Phases=1 Bus1=59.3 kV=0.23 kW=1 PF=0.95
New Load.LOAD19 Phases=1 Bus1=60.1 kV=0.23 kW=1 PF=0.95
New Load.LOAD20 Phases=1 Bus1=61.2 kV=0.23 kW=1 PF=0.95
New Load.LOAD21 Phases=1 Bus1=62.3 kV=0.23 kW=1 PF=0.95
New Load.LOAD22 Phases=1 Bus1=63.1 kV=0.23 kW=1 PF=0.95
New Load.LOAD23 Phases=1 Bus1=64.2 kV=0.23 kW=1 PF=0.95